@<TRIPOS>MOLECULE
*****
 77 80 0 0 0
SMALL
GASTEIGER

@<TRIPOS>ATOM
      1 C          -1.5388   -8.3887   -3.7089 C.3     1  UNL1       -0.0649
      2 C          -1.3559   -6.9518   -3.3251 C.3     1  UNL1       -0.0500
      3 C          -2.5022   -6.3035   -2.5226 C.3     1  UNL1       -0.0072
      4 C          -2.7446   -7.0542   -1.2205 C.3     1  UNL1       -0.0500
      5 C          -1.5323   -7.0333   -0.2963 C.3     1  UNL1       -0.0649
      6 C          -2.2716   -4.8094   -2.2579 C.3     1  UNL1        0.0953
      7 O          -2.2131   -4.1707   -3.5493 O.3     1  UNL1       -0.4633
      8 C          -0.9718   -4.2156   -4.0824 C.2     1  UNL1        0.3245
      9 O          -0.0450   -4.7375   -3.4752 O.2     1  UNL1       -0.2491
     10 C          -0.7439   -3.5038   -5.4229 C.3     1  UNL1        0.1129
     11 C          -1.9794   -2.8728   -6.0232 C.3     1  UNL1       -0.0388
     12 N           0.0514   -4.3486   -6.3352 N.3     1  UNL1       -0.1988
     13 P           1.4023   -5.2142   -5.8870 P.3     1  UNL1        0.4624
     14 O           1.1936   -6.3830   -4.9752 O.2     1  UNL1       -0.2281
     15 O           2.6621   -4.2882   -5.4131 O.3     1  UNL1       -0.2843
     16 C           2.8601   -4.0769   -3.9969 C.3     1  UNL1        0.0879
     17 C           1.8974   -2.9800   -3.5998 C.3     1  UNL1        0.1133
     18 C           2.2506   -1.5557   -3.9076 C.3     1  UNL1        0.1134
     19 C           1.3269   -0.7748   -2.9696 C.3     1  UNL1        0.1313
     20 C           0.4412   -1.8197   -2.2401 C.3     1  UNL1        0.2253
     21 O           1.2208   -3.0264   -2.3393 O.3     1  UNL1       -0.3430
     22 C          -0.9400   -1.7478   -2.8325 C.1     1  UNL1        0.1070
     23 N          -2.0150   -1.4980   -3.1759 N.1     1  UNL1       -0.1930
     24 C           0.1744   -1.4799   -0.8018 C.ar    1  UNL1        0.0921
     25 C          -0.5260   -0.3348   -0.4340 C.ar    1  UNL1       -0.0343
     26 C          -0.6488   -0.3148    0.9484 C.ar    1  UNL1       -0.0311
     27 C          -0.0673   -1.4701    1.4047 C.ar    1  UNL1        0.1053
     28 N           0.3926   -2.2151    0.3526 N.ar    1  UNL1       -0.2281
     29 N           0.9758   -3.4194    0.5238 N.ar    1  UNL1       -0.1545
     30 C           1.0868   -3.7921    1.7671 C.ar    1  UNL1        0.1388
     31 N           0.6846   -3.0999    2.8895 N.ar    1  UNL1       -0.2173
     32 C           0.1092   -1.9518    2.7308 C.ar    1  UNL1        0.1436
     33 N          -0.2989   -1.2232    3.8059 N.pl3   1  UNL1       -0.3414
     34 O           0.6460    0.2524   -3.6914 O.3     1  UNL1       -0.3848
     35 O           2.0542   -1.2446   -5.2868 O.3     1  UNL1       -0.3864
     36 O           1.9031   -5.7568   -7.3325 O.3     1  UNL1       -0.4128
     37 C           3.2269   -5.9574   -7.5731 C.ar    1  UNL1        0.1311
     38 C           3.7643   -5.3306   -8.6925 C.ar    1  UNL1       -0.0194
     39 C           5.1287   -5.4342   -8.9387 C.ar    1  UNL1       -0.0583
     40 C           5.9388   -6.1652   -8.0677 C.ar    1  UNL1       -0.0615
     41 C           5.3880   -6.7924   -6.9487 C.ar    1  UNL1       -0.0583
     42 C           4.0228   -6.6967   -6.7034 C.ar    1  UNL1       -0.0194
     43 H          -1.6667   -9.0275   -2.8382 H       1  UNL1        0.0230
     44 H          -0.6452   -8.7152   -4.2501 H       1  UNL1        0.0230
     45 H          -2.4010   -8.4606   -4.3742 H       1  UNL1        0.0230
     46 H          -0.4049   -6.8548   -2.7860 H       1  UNL1        0.0266
     47 H          -1.2653   -6.4613   -4.2952 H       1  UNL1        0.0266
     48 H          -3.3964   -6.3529   -3.1563 H       1  UNL1        0.0333
     49 H          -3.6132   -6.6274   -0.7094 H       1  UNL1        0.0266
     50 H          -3.0081   -8.0891   -1.4571 H       1  UNL1        0.0266
     51 H          -1.2958   -6.0159    0.0289 H       1  UNL1        0.0230
     52 H          -1.7264   -7.6365    0.5909 H       1  UNL1        0.0230
     53 H          -0.6389   -7.4421   -0.7787 H       1  UNL1        0.0230
     54 H          -3.0972   -4.3638   -1.6872 H       1  UNL1        0.0700
     55 H          -1.3753   -4.6082   -1.6463 H       1  UNL1        0.0700
     56 H          -0.1603   -2.6010   -5.2462 H       1  UNL1        0.0578
     57 H          -2.6769   -2.5511   -5.2483 H       1  UNL1        0.0250
     58 H          -1.6911   -1.9638   -6.5676 H       1  UNL1        0.0250
     59 H          -2.5093   -3.5544   -6.6804 H       1  UNL1        0.0250
     60 H          -0.5937   -5.0164   -6.7425 H       1  UNL1        0.1354
     61 H           2.6900   -5.0064   -3.4440 H       1  UNL1        0.0592
     62 H           3.8975   -3.7748   -3.8178 H       1  UNL1        0.0592
     63 H           1.1573   -3.1746   -4.3236 H       1  UNL1        0.0647
     64 H           3.2987   -1.3817   -3.6774 H       1  UNL1        0.0647
     65 H           1.9641   -0.2991   -2.2254 H       1  UNL1        0.0664
     66 H          -0.9276    0.3906   -1.1321 H       1  UNL1        0.0637
     67 H          -1.1166    0.4595    1.5338 H       1  UNL1        0.0640
     68 H           1.5666   -4.7662    1.9797 H       1  UNL1        0.1066
     69 H          -0.7571   -0.3304    3.6910 H       1  UNL1        0.1438
     70 H          -0.1588   -1.5764    4.7404 H       1  UNL1        0.1438
     71 H           0.5628    1.0227   -3.1071 H       1  UNL1        0.2101
     72 H           2.1470   -0.2788   -5.3753 H       1  UNL1        0.2100
     73 H           3.1306   -4.7361   -9.3453 H       1  UNL1        0.0654
     74 H           5.5617   -4.9384   -9.8022 H       1  UNL1        0.0619
     75 H           7.0042   -6.2442   -8.2615 H       1  UNL1        0.0618
     76 H           6.0196   -7.3491   -6.2630 H       1  UNL1        0.0619
     77 H           3.5918   -7.1692   -5.8246 H       1  UNL1        0.0654
@<TRIPOS>BOND
     1     1     2    1
     2     2     3    1
     3     3     4    1
     4     4     5    1
     5     3     6    1
     6     6     7    1
     7     7     8    1
     8     8     9    2
     9    10    12    1
    10    13    15    1
    11    15    16    1
    12    16    17    1
    13    17    18    1
    14    18    19    1
    15    19    20    1
    16    20    21    1
    17    17    21    1
    18    22    23    3
    19    24    25   ar
    20    25    26   ar
    21    26    27   ar
    22    27    28   ar
    23    24    28   ar
    24    28    29   ar
    25    29    30   ar
    26    30    31   ar
    27    31    32   ar
    28    27    32   ar
    29    32    33    1
    30    13    36    1
    31    36    37    1
    32    37    38   ar
    33    38    39   ar
    34    39    40   ar
    35    40    41   ar
    36    41    42   ar
    37    37    42   ar
    38     1    43    1
    39     1    44    1
    40     1    45    1
    41     2    46    1
    42     2    47    1
    43     3    48    1
    44     4    49    1
    45     4    50    1
    46     5    51    1
    47     5    52    1
    48     5    53    1
    49     6    54    1
    50     6    55    1
    51    10    56    1
    52    11    57    1
    53    11    58    1
    54    11    59    1
    55    12    60    1
    56    16    61    1
    57    16    62    1
    58    17    63    1
    59    25    66    1
    60    26    67    1
    61    30    68    1
    62    33    69    1
    63    33    70    1
    64    34    71    1
    65    35    72    1
    66    38    73    1
    67    39    74    1
    68    40    75    1
    69    41    76    1
    70    42    77    1
    71    20    24    1
    72    20    22    1
    73    18    64    1
    74    18    35    1
    75    19    65    1
    76    19    34    1
    77    10    11    1
    78    10     8    1
    79    13    14    2
    80    13    12    1
