REMARK  18 active torsions:
REMARK  status: ('A' for Active; 'I' for Inactive)
REMARK    1  A    between atoms: C_2  and  C_3 
REMARK    2  A    between atoms: C_3  and  C_4 
REMARK    3  A    between atoms: C_3  and  C_6 
REMARK    4  A    between atoms: C_6  and  O_7 
REMARK    5  A    between atoms: O_7  and  C_8 
REMARK    6  A    between atoms: C_10  and  C_8 
REMARK    7  A    between atoms: C_10  and  N_12 
REMARK    8  A    between atoms: P_13  and  N_12 
REMARK    9  A    between atoms: P_13  and  O_15 
REMARK   10  A    between atoms: P_13  and  O_36 
REMARK   11  A    between atoms: O_15  and  C_16 
REMARK   12  A    between atoms: C_16  and  C_17 
REMARK   13  A    between atoms: C_18  and  O_35 
REMARK   14  A    between atoms: C_19  and  O_34 
REMARK   15  A    between atoms: C_20  and  C_24 
REMARK   16  A    between atoms: C_20  and  C_22 
REMARK   17  A    between atoms: C_32  and  N_33 
REMARK   18  A    between atoms: O_36  and  C_37 
ROOT
ATOM      1  C   UNL d   1       2.860  -4.077  -3.997  0.00  0.00     0.214 C 
ENDROOT
BRANCH   1   2
ATOM      2  O   UNL d   1       2.662  -4.288  -5.413  0.00  0.00    -0.299 OA
BRANCH   2   3
ATOM      3  P   UNL d   1       1.402  -5.214  -5.887  0.00  0.00     0.413 P 
ATOM      4  O   UNL d   1       1.194  -6.383  -4.975  0.00  0.00    -0.239 OA
BRANCH   3   5
ATOM      5  O   UNL d   1       1.903  -5.757  -7.332  0.00  0.00    -0.260 OA
BRANCH   5   6
ATOM      6  C   UNL d   1       3.227  -5.957  -7.573  0.00  0.00     0.080 A 
ATOM      7  C   UNL d   1       3.764  -5.331  -8.693  0.00  0.00     0.037 A 
ATOM      8  C   UNL d   1       5.129  -5.434  -8.939  0.00  0.00     0.003 A 
ATOM      9  C   UNL d   1       5.939  -6.165  -8.068  0.00  0.00     0.000 A 
ATOM     10  C   UNL d   1       5.388  -6.792  -6.949  0.00  0.00     0.003 A 
ATOM     11  C   UNL d   1       4.023  -6.697  -6.703  0.00  0.00     0.037 A 
ENDBRANCH   5   6
ENDBRANCH   3   5
BRANCH   3  12
ATOM     12  N   UNL d   1       0.051  -4.349  -6.335  0.00  0.00    -0.213 NA
ATOM     13  H   UNL d   1      -0.594  -5.016  -6.742  0.00  0.00     0.134 HD
BRANCH  12  14
ATOM     14  C   UNL d   1      -0.744  -3.504  -5.423  0.00  0.00     0.162 C 
ATOM     15  C   UNL d   1      -1.979  -2.873  -6.023  0.00  0.00     0.037 C 
BRANCH  14  16
ATOM     16  C   UNL d   1      -0.972  -4.216  -4.082  0.00  0.00     0.276 C 
ATOM     17  O   UNL d   1      -0.045  -4.737  -3.475  0.00  0.00    -0.263 OA
BRANCH  16  18
ATOM     18  O   UNL d   1      -2.213  -4.171  -3.549  0.00  0.00    -0.320 OA
BRANCH  18  19
ATOM     19  C   UNL d   1      -2.272  -4.809  -2.258  0.00  0.00     0.183 C 
BRANCH  19  20
ATOM     20  C   UNL d   1      -2.502  -6.303  -2.523  0.00  0.00     0.009 C 
BRANCH  20  21
ATOM     21  C   UNL d   1      -1.356  -6.952  -3.325  0.00  0.00     0.002 C 
ATOM     22  C   UNL d   1      -1.539  -8.389  -3.709  0.00  0.00     0.005 C 
ENDBRANCH  20  21
BRANCH  20  23
ATOM     23  C   UNL d   1      -2.745  -7.054  -1.220  0.00  0.00     0.002 C 
ATOM     24  C   UNL d   1      -1.532  -7.033  -0.296  0.00  0.00     0.005 C 
ENDBRANCH  20  23
ENDBRANCH  19  20
ENDBRANCH  18  19
ENDBRANCH  16  18
ENDBRANCH  14  16
ENDBRANCH  12  14
ENDBRANCH   3  12
ENDBRANCH   2   3
ENDBRANCH   1   2
BRANCH   1  25
ATOM     25  C   UNL d   1       1.897  -2.980  -3.600  0.00  0.00     0.180 C 
ATOM     26  C   UNL d   1       2.251  -1.556  -3.908  0.00  0.00     0.182 C 
ATOM     27  C   UNL d   1       1.327  -0.775  -2.970  0.00  0.00     0.205 C 
ATOM     28  C   UNL d   1       0.441  -1.820  -2.240  0.00  0.00     0.222 C 
ATOM     29  O   UNL d   1       1.221  -3.026  -2.339  0.00  0.00    -0.347 OA
BRANCH  26  30
ATOM     30  O   UNL d   1       2.054  -1.245  -5.287  0.00  0.00    -0.390 OA
ATOM     31  H   UNL d   1       2.147  -0.279  -5.375  0.00  0.00     0.210 HD
ENDBRANCH  26  30
BRANCH  27  32
ATOM     32  O   UNL d   1       0.646   0.252  -3.691  0.00  0.00    -0.388 OA
ATOM     33  H   UNL d   1       0.563   1.023  -3.107  0.00  0.00     0.210 HD
ENDBRANCH  27  32
BRANCH  28  34
ATOM     34  C   UNL d   1       0.174  -1.480  -0.802  0.00  0.00     0.088 A 
ATOM     35  C   UNL d   1      -0.526  -0.335  -0.434  0.00  0.00     0.034 A 
ATOM     36  C   UNL d   1      -0.649  -0.315   0.948  0.00  0.00     0.038 A 
ATOM     37  C   UNL d   1      -0.067  -1.470   1.405  0.00  0.00     0.104 A 
ATOM     38  N   UNL d   1       0.393  -2.215   0.353  0.00  0.00    -0.229 N 
ATOM     39  C   UNL d   1       0.109  -1.952   2.731  0.00  0.00     0.151 A 
ATOM     40  N   UNL d   1       0.976  -3.419   0.524  0.00  0.00    -0.160 NA
ATOM     41  C   UNL d   1       1.087  -3.792   1.767  0.00  0.00     0.258 A 
ATOM     42  N   UNL d   1       0.685  -3.100   2.889  0.00  0.00    -0.221 NA
BRANCH  39  43
ATOM     43  N   UNL d   1      -0.299  -1.223   3.806  0.00  0.00    -0.382 N 
ATOM     44  H   UNL d   1      -0.757  -0.330   3.691  0.00  0.00     0.157 HD
ATOM     45  H   UNL d   1      -0.159  -1.576   4.740  0.00  0.00     0.157 HD
ENDBRANCH  39  43
ENDBRANCH  28  34
BRANCH  28  46
ATOM     46  C   UNL d   1      -0.940  -1.748  -2.833  0.00  0.00     0.107 C 
ATOM     47  N   UNL d   1      -2.015  -1.498  -3.176  0.00  0.00    -0.193 NA
ENDBRANCH  28  46
ENDBRANCH   1  25
TORSDOF 18
