MODEL 1
REMARK VINA RESULT:      -7.2      0.000      0.000
REMARK  18 active torsions:
REMARK  status: ('A' for Active; 'I' for Inactive)
REMARK    1  A    between atoms: C_2  and  C_3 
REMARK    2  A    between atoms: C_3  and  C_4 
REMARK    3  A    between atoms: C_3  and  C_6 
REMARK    4  A    between atoms: C_6  and  O_7 
REMARK    5  A    between atoms: O_7  and  C_8 
REMARK    6  A    between atoms: C_10  and  C_8 
REMARK    7  A    between atoms: C_10  and  N_12 
REMARK    8  A    between atoms: P_13  and  N_12 
REMARK    9  A    between atoms: P_13  and  O_15 
REMARK   10  A    between atoms: P_13  and  O_36 
REMARK   11  A    between atoms: O_15  and  C_16 
REMARK   12  A    between atoms: C_16  and  C_17 
REMARK   13  A    between atoms: C_18  and  O_35 
REMARK   14  A    between atoms: C_19  and  O_34 
REMARK   15  A    between atoms: C_20  and  C_24 
REMARK   16  A    between atoms: C_20  and  C_22 
REMARK   17  A    between atoms: C_32  and  N_33 
REMARK   18  A    between atoms: O_36  and  C_37 
ROOT
ATOM      1  C   UNL d   1     -26.388  -5.882  59.394  0.00  0.00     0.214 C 
ENDROOT
BRANCH   1   2
ATOM      2  O   UNL d   1     -27.341  -6.114  58.333  0.00  0.00    -0.299 OA
BRANCH   2   3
ATOM      3  P   UNL d   1     -27.236  -7.509  57.490  0.00  0.00     0.413 P 
ATOM      4  O   UNL d   1     -28.577  -8.145  57.291  0.00  0.00    -0.239 OA
BRANCH   3   5
ATOM      5  O   UNL d   1     -26.354  -8.441  58.484  0.00  0.00    -0.260 OA
BRANCH   5   6
ATOM      6  C   UNL d   1     -26.854  -9.617  58.952  0.00  0.00     0.080 A 
ATOM      7  C   UNL d   1     -27.388  -9.606  60.236  0.00  0.00     0.037 A 
ATOM      8  C   UNL d   1     -27.987 -10.759  60.732  0.00  0.00     0.003 A 
ATOM      9  C   UNL d   1     -28.040 -11.909  59.942  0.00  0.00     0.000 A 
ATOM     10  C   UNL d   1     -27.498 -11.909  58.656  0.00  0.00     0.003 A 
ATOM     11  C   UNL d   1     -26.892 -10.761  58.159  0.00  0.00     0.037 A 
ENDBRANCH   5   6
ENDBRANCH   3   5
BRANCH   3  12
ATOM     12  N   UNL d   1     -26.228  -7.431  56.166  0.00  0.00    -0.213 NA
ATOM     13  H   UNL d   1     -26.377  -8.285  55.642  0.00  0.00     0.134 HD
BRANCH  12  14
ATOM     14  C   UNL d   1     -26.221  -6.333  55.181  0.00  0.00     0.162 C 
ATOM     15  C   UNL d   1     -25.176  -6.433  54.094  0.00  0.00     0.037 C 
BRANCH  14  16
ATOM     16  C   UNL d   1     -27.643  -6.043  54.681  0.00  0.00     0.276 C 
ATOM     17  O   UNL d   1     -28.360  -5.226  55.245  0.00  0.00    -0.263 OA
BRANCH  16  18
ATOM     18  O   UNL d   1     -28.047  -6.652  53.544  0.00  0.00    -0.320 OA
BRANCH  18  19
ATOM     19  C   UNL d   1     -28.598  -7.959  53.795  0.00  0.00     0.183 C 
BRANCH  19  20
ATOM     20  C   UNL d   1     -27.910  -8.916  52.812  0.00  0.00     0.009 C 
BRANCH  20  21
ATOM     21  C   UNL d   1     -28.860 -10.002  52.269  0.00  0.00     0.002 C 
ATOM     22  C   UNL d   1     -28.598 -11.407  52.721  0.00  0.00     0.005 C 
ENDBRANCH  20  21
BRANCH  20  23
ATOM     23  C   UNL d   1     -27.260  -8.145  51.670  0.00  0.00     0.002 C 
ATOM     24  C   UNL d   1     -27.560  -8.755  50.305  0.00  0.00     0.005 C 
ENDBRANCH  20  23
ENDBRANCH  19  20
ENDBRANCH  18  19
ENDBRANCH  16  18
ENDBRANCH  14  16
ENDBRANCH  12  14
ENDBRANCH   3  12
ENDBRANCH   2   3
ENDBRANCH   1   2
BRANCH   1  25
ATOM     25  C   UNL d   1     -25.747  -4.545  59.095  0.00  0.00     0.180 C 
ATOM     26  C   UNL d   1     -26.333  -3.306  59.703  0.00  0.00     0.182 C 
ATOM     27  C   UNL d   1     -25.752  -2.198  58.822  0.00  0.00     0.205 C 
ATOM     28  C   UNL d   1     -24.797  -2.884  57.809  0.00  0.00     0.222 C 
ATOM     29  O   UNL d   1     -25.286  -4.238  57.775  0.00  0.00    -0.347 OA
BRANCH  26  30
ATOM     30  O   UNL d   1     -25.988  -3.176  61.082  0.00  0.00    -0.390 OA
ATOM     31  H   UNL d   1     -25.054  -2.898  61.114  0.00  0.00     0.210 HD
ENDBRANCH  26  30
BRANCH  27  32
ATOM     32  O   UNL d   1     -25.191  -1.166  59.635  0.00  0.00    -0.388 OA
ATOM     33  H   UNL d   1     -25.886  -0.510  59.807  0.00  0.00     0.210 HD
ENDBRANCH  27  32
BRANCH  28  34
ATOM     34  C   UNL d   1     -24.839  -2.273  56.438  0.00  0.00     0.088 A 
ATOM     35  C   UNL d   1     -25.142  -3.023  55.306  0.00  0.00     0.034 A 
ATOM     36  C   UNL d   1     -25.144  -2.182  54.203  0.00  0.00     0.038 A 
ATOM     37  C   UNL d   1     -24.891  -0.920  54.678  0.00  0.00     0.104 A 
ATOM     38  N   UNL d   1     -24.753  -0.947  56.039  0.00  0.00    -0.229 N 
ATOM     39  C   UNL d   1     -24.759   0.316  53.988  0.00  0.00     0.151 A 
ATOM     40  N   UNL d   1     -24.535   0.169  56.763  0.00  0.00    -0.160 NA
ATOM     41  C   UNL d   1     -24.440   1.259  56.057  0.00  0.00     0.258 A 
ATOM     42  N   UNL d   1     -24.532   1.381  54.687  0.00  0.00    -0.221 NA
BRANCH  39  43
ATOM     43  N   UNL d   1     -24.850   0.379  52.631  0.00  0.00    -0.382 N 
ATOM     44  H   UNL d   1     -24.761  -0.449  52.060  0.00  0.00     0.157 HD
ATOM     45  H   UNL d   1     -25.021   1.262  52.175  0.00  0.00     0.157 HD
ENDBRANCH  39  43
ENDBRANCH  28  34
BRANCH  28  46
ATOM     46  C   UNL d   1     -23.384  -2.588  58.233  0.00  0.00     0.107 C 
ATOM     47  N   UNL d   1     -22.395  -2.289  58.750  0.00  0.00    -0.193 NA
ENDBRANCH  28  46
ENDBRANCH   1  25
TORSDOF 18
ENDMDL
MODEL 2
REMARK VINA RESULT:      -7.1      3.042      5.215
REMARK  18 active torsions:
REMARK  status: ('A' for Active; 'I' for Inactive)
REMARK    1  A    between atoms: C_2  and  C_3 
REMARK    2  A    between atoms: C_3  and  C_4 
REMARK    3  A    between atoms: C_3  and  C_6 
REMARK    4  A    between atoms: C_6  and  O_7 
REMARK    5  A    between atoms: O_7  and  C_8 
REMARK    6  A    between atoms: C_10  and  C_8 
REMARK    7  A    between atoms: C_10  and  N_12 
REMARK    8  A    between atoms: P_13  and  N_12 
REMARK    9  A    between atoms: P_13  and  O_15 
REMARK   10  A    between atoms: P_13  and  O_36 
REMARK   11  A    between atoms: O_15  and  C_16 
REMARK   12  A    between atoms: C_16  and  C_17 
REMARK   13  A    between atoms: C_18  and  O_35 
REMARK   14  A    between atoms: C_19  and  O_34 
REMARK   15  A    between atoms: C_20  and  C_24 
REMARK   16  A    between atoms: C_20  and  C_22 
REMARK   17  A    between atoms: C_32  and  N_33 
REMARK   18  A    between atoms: O_36  and  C_37 
ROOT
ATOM      1  C   UNL d   1     -25.782  -3.854  55.783  0.00  0.00     0.214 C 
ENDROOT
BRANCH   1   2
ATOM      2  O   UNL d   1     -27.063  -4.323  55.306  0.00  0.00    -0.299 OA
BRANCH   2   3
ATOM      3  P   UNL d   1     -27.281  -5.933  55.134  0.00  0.00     0.413 P 
ATOM      4  O   UNL d   1     -28.157  -6.257  53.964  0.00  0.00    -0.239 OA
BRANCH   3   5
ATOM      5  O   UNL d   1     -28.065  -6.319  56.501  0.00  0.00    -0.260 OA
BRANCH   5   6
ATOM      6  C   UNL d   1     -27.954  -7.566  57.033  0.00  0.00     0.080 A 
ATOM      7  C   UNL d   1     -27.278  -7.675  58.244  0.00  0.00     0.037 A 
ATOM      8  C   UNL d   1     -27.208  -8.914  58.873  0.00  0.00     0.003 A 
ATOM      9  C   UNL d   1     -27.806 -10.028  58.282  0.00  0.00     0.000 A 
ATOM     10  C   UNL d   1     -28.478  -9.907  57.065  0.00  0.00     0.003 A 
ATOM     11  C   UNL d   1     -28.546  -8.672  56.430  0.00  0.00     0.037 A 
ENDBRANCH   5   6
ENDBRANCH   3   5
BRANCH   3  12
ATOM     12  N   UNL d   1     -25.890  -6.832  55.314  0.00  0.00    -0.213 NA
ATOM     13  H   UNL d   1     -26.114  -7.581  55.959  0.00  0.00     0.134 HD
BRANCH  12  14
ATOM     14  C   UNL d   1     -25.142  -7.451  54.202  0.00  0.00     0.162 C 
ATOM     15  C   UNL d   1     -23.713  -6.989  54.036  0.00  0.00     0.037 C 
BRANCH  14  16
ATOM     16  C   UNL d   1     -25.330  -8.975  54.202  0.00  0.00     0.276 C 
ATOM     17  O   UNL d   1     -25.338  -9.613  55.247  0.00  0.00    -0.263 OA
BRANCH  16  18
ATOM     18  O   UNL d   1     -25.576  -9.578  53.018  0.00  0.00    -0.320 OA
BRANCH  18  19
ATOM     19  C   UNL d   1     -26.265  -8.707  52.099  0.00  0.00     0.183 C 
BRANCH  19  20
ATOM     20  C   UNL d   1     -27.393  -9.540  51.476  0.00  0.00     0.009 C 
BRANCH  20  21
ATOM     21  C   UNL d   1     -28.650  -9.607  52.367  0.00  0.00     0.002 C 
ATOM     22  C   UNL d   1     -28.850 -10.873  53.145  0.00  0.00     0.005 C 
ENDBRANCH  20  21
BRANCH  20  23
ATOM     23  C   UNL d   1     -27.743  -9.025  50.085  0.00  0.00     0.002 C 
ATOM     24  C   UNL d   1     -29.020  -9.649  49.533  0.00  0.00     0.005 C 
ENDBRANCH  20  23
ENDBRANCH  19  20
ENDBRANCH  18  19
ENDBRANCH  16  18
ENDBRANCH  14  16
ENDBRANCH  12  14
ENDBRANCH   3  12
ENDBRANCH   2   3
ENDBRANCH   1   2
BRANCH   1  25
ATOM     25  C   UNL d   1     -25.942  -3.645  57.272  0.00  0.00     0.180 C 
ATOM     26  C   UNL d   1     -25.981  -2.246  57.810  0.00  0.00     0.182 C 
ATOM     27  C   UNL d   1     -25.671  -2.453  59.295  0.00  0.00     0.205 C 
ATOM     28  C   UNL d   1     -25.555  -3.985  59.520  0.00  0.00     0.222 C 
ATOM     29  O   UNL d   1     -25.244  -4.479  58.204  0.00  0.00    -0.347 OA
BRANCH  26  30
ATOM     30  O   UNL d   1     -27.243  -1.621  57.575  0.00  0.00    -0.390 OA
ATOM     31  H   UNL d   1     -27.364  -0.957  58.278  0.00  0.00     0.210 HD
ENDBRANCH  26  30
BRANCH  27  32
ATOM     32  O   UNL d   1     -26.623  -1.757  60.099  0.00  0.00    -0.388 OA
ATOM     33  H   UNL d   1     -27.491  -2.171  59.961  0.00  0.00     0.210 HD
ENDBRANCH  27  32
BRANCH  28  34
ATOM     34  C   UNL d   1     -24.480  -4.368  60.495  0.00  0.00     0.088 A 
ATOM     35  C   UNL d   1     -23.841  -3.424  61.294  0.00  0.00     0.034 A 
ATOM     36  C   UNL d   1     -22.933  -4.079  62.115  0.00  0.00     0.038 A 
ATOM     37  C   UNL d   1     -23.063  -5.418  61.844  0.00  0.00     0.104 A 
ATOM     38  N   UNL d   1     -24.033  -5.616  60.900  0.00  0.00    -0.229 N 
ATOM     39  C   UNL d   1     -22.367  -6.538  62.376  0.00  0.00     0.151 A 
ATOM     40  N   UNL d   1     -24.387  -6.848  60.479  0.00  0.00    -0.160 NA
ATOM     41  C   UNL d   1     -23.711  -7.818  61.025  0.00  0.00     0.258 A 
ATOM     42  N   UNL d   1     -22.699  -7.716  61.955  0.00  0.00    -0.221 NA
BRANCH  39  43
ATOM     43  N   UNL d   1     -21.368  -6.379  63.287  0.00  0.00    -0.382 N 
ATOM     44  H   UNL d   1     -20.425  -6.158  63.000  0.00  0.00     0.157 HD
ATOM     45  H   UNL d   1     -21.563  -6.468  64.273  0.00  0.00     0.157 HD
ENDBRANCH  39  43
ENDBRANCH  28  34
BRANCH  28  46
ATOM     46  C   UNL d   1     -26.796  -4.441  60.238  0.00  0.00     0.107 C 
ATOM     47  N   UNL d   1     -27.806  -4.879  60.589  0.00  0.00    -0.193 NA
ENDBRANCH  28  46
ENDBRANCH   1  25
TORSDOF 18
ENDMDL
MODEL 3
REMARK VINA RESULT:      -7.0      2.787      4.810
REMARK  18 active torsions:
REMARK  status: ('A' for Active; 'I' for Inactive)
REMARK    1  A    between atoms: C_2  and  C_3 
REMARK    2  A    between atoms: C_3  and  C_4 
REMARK    3  A    between atoms: C_3  and  C_6 
REMARK    4  A    between atoms: C_6  and  O_7 
REMARK    5  A    between atoms: O_7  and  C_8 
REMARK    6  A    between atoms: C_10  and  C_8 
REMARK    7  A    between atoms: C_10  and  N_12 
REMARK    8  A    between atoms: P_13  and  N_12 
REMARK    9  A    between atoms: P_13  and  O_15 
REMARK   10  A    between atoms: P_13  and  O_36 
REMARK   11  A    between atoms: O_15  and  C_16 
REMARK   12  A    between atoms: C_16  and  C_17 
REMARK   13  A    between atoms: C_18  and  O_35 
REMARK   14  A    between atoms: C_19  and  O_34 
REMARK   15  A    between atoms: C_20  and  C_24 
REMARK   16  A    between atoms: C_20  and  C_22 
REMARK   17  A    between atoms: C_32  and  N_33 
REMARK   18  A    between atoms: O_36  and  C_37 
ROOT
ATOM      1  C   UNL d   1     -25.625  -3.900  55.866  0.00  0.00     0.214 C 
ENDROOT
BRANCH   1   2
ATOM      2  O   UNL d   1     -26.939  -4.195  55.341  0.00  0.00    -0.299 OA
BRANCH   2   3
ATOM      3  P   UNL d   1     -27.360  -5.762  55.149  0.00  0.00     0.413 P 
ATOM      4  O   UNL d   1     -28.369  -5.940  54.057  0.00  0.00    -0.239 OA
BRANCH   3   5
ATOM      5  O   UNL d   1     -28.059  -6.104  56.572  0.00  0.00    -0.260 OA
BRANCH   5   6
ATOM      6  C   UNL d   1     -27.901  -7.329  57.143  0.00  0.00     0.080 A 
ATOM      7  C   UNL d   1     -27.178  -7.382  58.330  0.00  0.00     0.037 A 
ATOM      8  C   UNL d   1     -27.057  -8.595  58.998  0.00  0.00     0.003 A 
ATOM      9  C   UNL d   1     -27.654  -9.742  58.470  0.00  0.00     0.000 A 
ATOM     10  C   UNL d   1     -28.375  -9.677  57.276  0.00  0.00     0.003 A 
ATOM     11  C   UNL d   1     -28.492  -8.467  56.602  0.00  0.00     0.037 A 
ENDBRANCH   5   6
ENDBRANCH   3   5
BRANCH   3  12
ATOM     12  N   UNL d   1     -26.074  -6.821  55.175  0.00  0.00    -0.213 NA
ATOM     13  H   UNL d   1     -26.335  -7.572  55.804  0.00  0.00     0.134 HD
BRANCH  12  14
ATOM     14  C   UNL d   1     -25.491  -7.462  53.981  0.00  0.00     0.162 C 
ATOM     15  C   UNL d   1     -24.054  -7.102  53.679  0.00  0.00     0.037 C 
BRANCH  14  16
ATOM     16  C   UNL d   1     -25.794  -8.967  53.968  0.00  0.00     0.276 C 
ATOM     17  O   UNL d   1     -25.522  -9.677  54.928  0.00  0.00    -0.263 OA
BRANCH  16  18
ATOM     18  O   UNL d   1     -26.452  -9.467  52.899  0.00  0.00    -0.320 OA
BRANCH  18  19
ATOM     19  C   UNL d   1     -27.854  -9.136  52.922  0.00  0.00     0.183 C 
BRANCH  19  20
ATOM     20  C   UNL d   1     -28.564 -10.194  52.066  0.00  0.00     0.009 C 
BRANCH  20  21
ATOM     21  C   UNL d   1     -27.951 -10.334  50.658  0.00  0.00     0.002 C 
ATOM     22  C   UNL d   1     -27.929  -9.097  49.812  0.00  0.00     0.005 C 
ENDBRANCH  20  21
BRANCH  20  23
ATOM     23  C   UNL d   1     -28.594 -11.539  52.781  0.00  0.00     0.002 C 
ATOM     24  C   UNL d   1     -28.929 -11.408  54.263  0.00  0.00     0.005 C 
ENDBRANCH  20  23
ENDBRANCH  19  20
ENDBRANCH  18  19
ENDBRANCH  16  18
ENDBRANCH  14  16
ENDBRANCH  12  14
ENDBRANCH   3  12
ENDBRANCH   2   3
ENDBRANCH   1   2
BRANCH   1  25
ATOM     25  C   UNL d   1     -25.815  -3.645  57.345  0.00  0.00     0.180 C 
ATOM     26  C   UNL d   1     -25.965  -2.232  57.825  0.00  0.00     0.182 C 
ATOM     27  C   UNL d   1     -25.655  -2.355  59.319  0.00  0.00     0.205 C 
ATOM     28  C   UNL d   1     -25.424  -3.863  59.606  0.00  0.00     0.222 C 
ATOM     29  O   UNL d   1     -25.065  -4.385  58.314  0.00  0.00    -0.347 OA
BRANCH  26  30
ATOM     30  O   UNL d   1     -27.268  -1.715  57.557  0.00  0.00    -0.390 OA
ATOM     31  H   UNL d   1     -27.382  -1.723  56.589  0.00  0.00     0.210 HD
ENDBRANCH  26  30
BRANCH  27  32
ATOM     32  O   UNL d   1     -26.665  -1.702  60.088  0.00  0.00    -0.388 OA
ATOM     33  H   UNL d   1     -26.225  -1.095  60.704  0.00  0.00     0.210 HD
ENDBRANCH  27  32
BRANCH  28  34
ATOM     34  C   UNL d   1     -24.332  -4.124  60.604  0.00  0.00     0.088 A 
ATOM     35  C   UNL d   1     -24.013  -5.410  61.027  0.00  0.00     0.034 A 
ATOM     36  C   UNL d   1     -22.945  -5.335  61.909  0.00  0.00     0.038 A 
ATOM     37  C   UNL d   1     -22.592  -4.012  61.978  0.00  0.00     0.104 A 
ATOM     38  N   UNL d   1     -23.390  -3.267  61.152  0.00  0.00    -0.229 N 
ATOM     39  C   UNL d   1     -21.583  -3.365  62.742  0.00  0.00     0.151 A 
ATOM     40  N   UNL d   1     -23.229  -1.936  61.003  0.00  0.00    -0.160 NA
ATOM     41  C   UNL d   1     -22.276  -1.425  61.728  0.00  0.00     0.258 A 
ATOM     42  N   UNL d   1     -21.445  -2.085  62.607  0.00  0.00    -0.221 NA
BRANCH  39  43
ATOM     43  N   UNL d   1     -20.794  -4.064  63.604  0.00  0.00    -0.382 N 
ATOM     44  H   UNL d   1     -20.537  -5.023  63.419  0.00  0.00     0.157 HD
ATOM     45  H   UNL d   1     -20.443  -3.623  64.440  0.00  0.00     0.157 HD
ENDBRANCH  39  43
ENDBRANCH  28  34
BRANCH  28  46
ATOM     46  C   UNL d   1     -26.634  -4.384  60.334  0.00  0.00     0.107 C 
ATOM     47  N   UNL d   1     -27.679  -4.679  60.731  0.00  0.00    -0.193 NA
ENDBRANCH  28  46
ENDBRANCH   1  25
TORSDOF 18
ENDMDL
